#

@<TRIPOS>MOLECULE
****
 8 7 0 0 0
SMALL
USER_CHARGES

@<TRIPOS>ATOM
      1 C           0.2722   -1.1991   -0.0001 C.3       1 LIG         0.0000
      2 C1          1.5984   -0.4328    0.0001 C.3       1 LIG         0.0000
      3 H          -0.5939   -0.4979    0.0001 H         1 LIG         0.0000
      4 H1          0.1869   -1.8490   -0.9013 H         1 LIG         0.0000
      5 H2          0.1869   -1.8495    0.9008 H         1 LIG         0.0000
      6 H3          2.4645   -1.1340   -0.0001 H         1 LIG         0.0000
      7 H4          1.6837    0.2171    0.9013 H         1 LIG         0.0000
      8 H5          1.6837    0.2176   -0.9008 H         1 LIG         0.0000
@<TRIPOS>BOND
     1    1    2 1  
     2    1    3 1  
     3    1    4 1  
     4    1    5 1  
     5    2    6 1  
     6    2    7 1  
     7    2    8 1  
